/*--------------------------------*- C++ -*----------------------------------*\
  =========                 |
  \\      /  F ield         | OpenFOAM: The Open Source CFD Toolbox
   \\    /   O peration     | Website:  https://openfoam.org
    \\  /    A nd           | Version:  9
     \\/     M anipulation  |
\*---------------------------------------------------------------------------*/
FoamFile
{
    format      ascii;
    class       polyBoundaryMesh;
    location    "constant/polyMesh";
    object      boundary;
}
// * * * * * * * * * * * * * * * * * * * * * * * * * * * * * * * * * * * * * //

4
(
    INLET
    {
        type            patch;
        nFaces          500;
        startFace       43900;
    }
    OUTLET
    {
        type            patch;
        nFaces          500;
        startFace       44400;
    }
    HEATER
    {
        type            wall;
        inGroups        List<word> 1(wall);
        nFaces          400;
        startFace       44900;
    }
    defaultFaces
    {
        type            empty;
        inGroups        List<word> 1(empty);
        nFaces          800;
        startFace       45300;
    }
)

// ************************************************************************* //
