/*--------------------------------*- C++ -*----------------------------------*\
  =========                 |
  \\      /  F ield         | OpenFOAM: The Open Source CFD Toolbox
   \\    /   O peration     | Website:  https://openfoam.org
    \\  /    A nd           | Version:  9
     \\/     M anipulation  |
\*---------------------------------------------------------------------------*/
FoamFile
{
    format      ascii;
    class       dictionary;
    object      blockMeshDict;
}
// * * * * * * * * * * * * * * * * * * * * * * * * * * * * * * * * * * * * * //

convertToMeters 1;

// flow along z axis (towards -z)
// inlet is at (0 0 0), outlet at (0 0 -$pipeEnd)
// DIMENSIONS SETTINGS
pipeStart			      0;
pipeEnd      		      1.21;
pipeDiameter 		      0.0098;
pipeRadius                #calc "$pipeDiameter/2";
heaterLead                0.678;
heaterTrail               0.693;
innerSquareCoord          #calc "0.25*$pipeRadius";
diagonalPointCoord        #calc "Foam::sqrt($pipeRadius*$pipeRadius/2)";
// NODES DISTRIBUTION SETTINGS
inflationRate             0.125;
inletPartNodesNum         160;
heaterPartNodesNum        10;
outletPartNodesNum        120;
radialDirNodesNum         25;
squareUniformNodesNum     10;
tangentialDirNodesNum     $squareUniformNodesNum;
inletPartZrate            0.25;
outletPartZrate           4;

vertices
(
	// (0 0 0) is origin
    (-$innerSquareCoord  $innerSquareCoord  $pipeStart)				// 0
    ( $innerSquareCoord  $innerSquareCoord  $pipeStart)    			// 1
    ( $innerSquareCoord -$innerSquareCoord  $pipeStart)    			// 2
    (-$innerSquareCoord -$innerSquareCoord  $pipeStart)    			// 3

    (-$diagonalPointCoord	 $diagonalPointCoord  $pipeStart)		// 4
    ( $diagonalPointCoord	 $diagonalPointCoord  $pipeStart) 		// 5
    ( $diagonalPointCoord	-$diagonalPointCoord  $pipeStart) 		// 6
    (-$diagonalPointCoord	-$diagonalPointCoord  $pipeStart) 		// 7

    (-$innerSquareCoord  $innerSquareCoord  -$heaterLead)			// 8
    ( $innerSquareCoord  $innerSquareCoord  -$heaterLead)    		// 9
    ( $innerSquareCoord -$innerSquareCoord  -$heaterLead)    		// 10
    (-$innerSquareCoord -$innerSquareCoord  -$heaterLead)    		// 11

    (-$diagonalPointCoord	 $diagonalPointCoord  -$heaterLead)		// 12
    ( $diagonalPointCoord	 $diagonalPointCoord  -$heaterLead) 	// 13
    ( $diagonalPointCoord	-$diagonalPointCoord  -$heaterLead) 	// 14
    (-$diagonalPointCoord	-$diagonalPointCoord  -$heaterLead) 	// 15

    (-$innerSquareCoord  $innerSquareCoord  -$heaterTrail)			// 16
    ( $innerSquareCoord  $innerSquareCoord  -$heaterTrail)    		// 17
    ( $innerSquareCoord -$innerSquareCoord  -$heaterTrail)    		// 18
    (-$innerSquareCoord -$innerSquareCoord  -$heaterTrail)    		// 19

    (-$diagonalPointCoord	 $diagonalPointCoord  -$heaterTrail)	// 20
    ( $diagonalPointCoord	 $diagonalPointCoord  -$heaterTrail) 	// 21
    ( $diagonalPointCoord	-$diagonalPointCoord  -$heaterTrail) 	// 22
    (-$diagonalPointCoord	-$diagonalPointCoord  -$heaterTrail) 	// 23

    (-$innerSquareCoord  $innerSquareCoord  -$pipeEnd)				// 24
    ( $innerSquareCoord  $innerSquareCoord  -$pipeEnd)    			// 25
    ( $innerSquareCoord -$innerSquareCoord  -$pipeEnd)    			// 26
    (-$innerSquareCoord -$innerSquareCoord  -$pipeEnd)    			// 27

    (-$diagonalPointCoord	 $diagonalPointCoord  -$pipeEnd)		// 28
    ( $diagonalPointCoord	 $diagonalPointCoord  -$pipeEnd) 		// 29
    ( $diagonalPointCoord	-$diagonalPointCoord  -$pipeEnd) 		// 30
    (-$diagonalPointCoord	-$diagonalPointCoord  -$pipeEnd) 		// 31
);

blocks
(
	// Inlet part
    hex (0 1 2 3 8 9 10 11)       ($squareUniformNodesNum $squareUniformNodesNum $inletPartNodesNum) simpleGrading (1 1          $inletPartZrate)  // 0
    hex (0 4 5 1 8 12 13 9)       ($radialDirNodesNum $tangentialDirNodesNum $inletPartNodesNum) simpleGrading ($inflationRate 1 $inletPartZrate)  // 1
    hex (1 5 6 2 9 13 14 10)      ($radialDirNodesNum $tangentialDirNodesNum $inletPartNodesNum) simpleGrading ($inflationRate 1 $inletPartZrate)  // 2
    hex (2 6 7 3 10 14 15 11)     ($radialDirNodesNum $tangentialDirNodesNum $inletPartNodesNum) simpleGrading ($inflationRate 1 $inletPartZrate)  // 3
    hex (3 7 4 0 11 15 12 8)      ($radialDirNodesNum $tangentialDirNodesNum $inletPartNodesNum) simpleGrading ($inflationRate 1 $inletPartZrate)  // 4

	// Heater part
    hex (8 9 10 11 16 17 18 19)   ($squareUniformNodesNum $squareUniformNodesNum $heaterPartNodesNum) simpleGrading (1 1 1)           // 5
    hex (8 12 13 9 16 20 21 17)   ($radialDirNodesNum $tangentialDirNodesNum $heaterPartNodesNum) simpleGrading ($inflationRate 1 1)  // 6
    hex (9 13 14 10 17 21 22 18)  ($radialDirNodesNum $tangentialDirNodesNum $heaterPartNodesNum) simpleGrading ($inflationRate 1 1)  // 7 
    hex (10 14 15 11 18 22 23 19) ($radialDirNodesNum $tangentialDirNodesNum $heaterPartNodesNum) simpleGrading ($inflationRate 1 1)  // 8
    hex (11 15 12 8 19 23 20 16)  ($radialDirNodesNum $tangentialDirNodesNum $heaterPartNodesNum) simpleGrading ($inflationRate 1 1)  // 9

	// Outlet part
    hex (16 17 18 19 24 25 26 27) ($squareUniformNodesNum $squareUniformNodesNum $outletPartNodesNum) simpleGrading (1 1          $outletPartZrate)  // 10
    hex (16 20 21 17 24 28 29 25) ($radialDirNodesNum $tangentialDirNodesNum $outletPartNodesNum) simpleGrading ($inflationRate 1 $outletPartZrate)  // 11
    hex (17 21 22 18 25 29 30 26) ($radialDirNodesNum $tangentialDirNodesNum $outletPartNodesNum) simpleGrading ($inflationRate 1 $outletPartZrate)  // 12
    hex (18 22 23 19 26 30 31 27) ($radialDirNodesNum $tangentialDirNodesNum $outletPartNodesNum) simpleGrading ($inflationRate 1 $outletPartZrate)  // 13
    hex (19 23 20 16 27 31 28 24) ($radialDirNodesNum $tangentialDirNodesNum $outletPartNodesNum) simpleGrading ($inflationRate 1 $outletPartZrate)  // 14
);

edges
(
	arc 4 5   ($pipeStart $pipeRadius  $pipeStart)       // block 1
	arc 12 13 ($pipeStart $pipeRadius -$heaterLead)      // block 1
	arc 20 21 ($pipeStart $pipeRadius -$heaterTrail)     // block 6
	arc 28 29 ($pipeStart $pipeRadius -$pipeEnd)         // block 11

	arc 5 6   ($pipeRadius $pipeStart  $pipeStart)       // block 2
	arc 13 14 ($pipeRadius $pipeStart -$heaterLead)      // block 2
	arc 21 22 ($pipeRadius $pipeStart -$heaterTrail)     // block 7
	arc 29 30 ($pipeRadius $pipeStart -$pipeEnd)         // block 12

	arc 6 7   ($pipeStart -$pipeRadius  $pipeStart)      // block 3
	arc 14 15 ($pipeStart -$pipeRadius -$heaterLead)     // block 3
	arc 22 23 ($pipeStart -$pipeRadius -$heaterTrail)    // block 8
	arc 30 31 ($pipeStart -$pipeRadius -$pipeEnd)        // block 13

	arc 7 4   (-$pipeRadius $pipeStart  $pipeStart)      // block 4
	arc 15 12 (-$pipeRadius $pipeStart -$heaterLead)     // block 4
	arc 23 20 (-$pipeRadius $pipeStart -$heaterTrail)    // block 9
	arc 31 28 (-$pipeRadius $pipeStart -$pipeEnd)        // block 14

);

boundary
(
    INLET
    {
        type patch;
        faces
        (
            (0 4 5 1)
            (5 6 2 1)
            (2 6 7 3)
            (3 7 4 0)
            (0 1 2 3)
        );
    }
    OUTLET
    {
        type patch;
        faces
        (
            (24 28 29 25)
            (25 29 30 26)
            (26 30 31 27)
            (27 31 28 24)
            (24 25 26 27)
        );
    }
    HEATER
    {
        type wall;
        faces
        (
            (13 21 20 12)
            (14 22 21 13)
            (15 23 22 14)
            (15 12 20 23)
        );
    }
    WALL
    {
        type wall;
        faces
        (
            (4 5 13 12)
            (5 6 14 13)
            (15 14 6 7)
            (7 4 12 15)

            (20 21 29 28)
            (29 21 22 30)
            (31 30 22 23)
            (20 28 31 23)
        );
    }
);

mergePatchPairs
(
);

// ************************************************************************* //
